Version 4
SHEET 1 1048 680
WIRE 816 80 672 80
WIRE 544 96 512 96
WIRE 608 96 544 96
WIRE 768 112 672 112
WIRE 608 128 576 128
WIRE 720 144 672 144
WIRE 576 176 576 128
WIRE 576 176 544 176
WIRE 720 176 720 144
WIRE 736 176 720 176
WIRE 816 176 816 80
WIRE 816 208 816 176
WIRE 208 256 -128 256
WIRE 368 256 288 256
WIRE 416 256 368 256
WIRE 480 256 416 256
WIRE 512 256 512 96
WIRE 512 256 480 256
WIRE -128 304 -128 256
WIRE 512 304 512 256
WIRE 368 320 368 256
WIRE 416 320 416 256
WIRE 480 320 480 256
WIRE 576 320 576 176
WIRE -128 448 -128 384
WIRE 208 448 -128 448
WIRE 336 448 288 448
WIRE 368 448 368 384
WIRE 368 448 336 448
WIRE 416 448 416 384
WIRE 416 448 368 448
WIRE 480 448 480 384
WIRE 480 448 416 448
WIRE 512 448 512 384
WIRE 512 448 480 448
WIRE 576 448 576 384
WIRE 576 448 512 448
WIRE 768 448 768 112
WIRE 768 448 576 448
WIRE 816 448 816 288
WIRE 816 448 768 448
WIRE 336 528 336 448
FLAG 336 528 0
SYMBOL voltage -128 288 R0
SYMATTR InstName V1
SYMATTR Value SINE(0 10 200)
SYMBOL res 304 240 R90
WINDOW 0 0 56 VBottom 2
WINDOW 3 32 56 VTop 2
SYMATTR InstName R1
SYMATTR Value 22K
SYMBOL res 304 432 R90
WINDOW 0 0 56 VBottom 2
WINDOW 3 32 56 VTop 2
SYMATTR InstName R2
SYMATTR Value 22K
SYMBOL voltage 816 192 R0
SYMATTR InstName V2
SYMATTR Value 5
SYMATTR SpiceLine Rser=10
SYMBOL cap 496 384 R180
WINDOW 0 24 56 Left 2
WINDOW 3 24 8 Left 2
SYMATTR InstName C3
SYMATTR Value 1µF
SYMBOL schottky 352 320 R0
SYMATTR InstName D1
SYMATTR Value 1N5819
SYMATTR Description Diode
SYMATTR Type diode
SYMBOL schottky 432 384 R180
WINDOW 0 24 64 Left 2
WINDOW 3 24 0 Left 2
SYMATTR InstName D2
SYMATTR Value 1N5819
SYMATTR Description Diode
SYMATTR Type diode
SYMBOL AutoGenerated/LM393A 640 112 R0
SYMATTR InstName U1
SYMBOL Res 832 160 R90
WINDOW 0 0 56 VBottom 2
WINDOW 3 32 56 VTop 2
SYMATTR InstName R10
SYMATTR Value 20K
SYMBOL res 528 80 R0
SYMATTR InstName R3
SYMATTR Value 1K
SYMBOL cap 592 384 R180
WINDOW 0 24 56 Left 2
WINDOW 3 24 8 Left 2
SYMATTR InstName C1
SYMATTR Value 1µF
SYMBOL res 496 288 R0
SYMATTR InstName R4
SYMATTR Value 1K
TEXT -112 128 Left 2 !.tran 10ms startup
TEXT -264 184 Left 2 ;4KHz >= 80V\n3KHz >= 60V\n2KHz >= 40V\n1KHz >= 20V\n500Hz >= 13V\n400Hz >= 12V\n200Hz >= 10V
TEXT 96 168 Left 2 ;Diodes clamp to + - 0.7v
TEXT 464 488 Left 2 ;Histeresis is Vs * 1/22 ie 5/22 == 227mV
